<?xml version='1.0' encoding='ISO-8859-1'?>
<febio_spec version="4.0">
	<Module type="solid" />
	<Globals>
		<Constants>
			<T>0</T>
			<P>0</P>
			<R>8.31446</R>
			<Fc>96485.3</Fc>
		</Constants>
	</Globals>
	<Material>
		<material id="1" name="skin" type="Mooney-Rivlin">
			<k>480000.0</k>
			<pressure_model>default</pressure_model>
			<density type="math">1100.0</density>
			<c1 type="math">1200.0</c1>
			<c2 type="math">1200.0</c2>
		</material>
		<material id="2" name="adipose" type="Mooney-Rivlin">
			<k>425000.0</k>
			<pressure_model>default</pressure_model>
			<density type="math">911.0</density>
			<c1 type="math">109.0</c1>
			<c2 type="math">106.0</c2>
		</material>
		<material id="3" name="glandular" type="Mooney-Rivlin">
			<k>425000.0</k>
			<pressure_model>default</pressure_model>
			<density type="math">1041.0</density>
			<c1 type="math">230.0</c1>
			<c2 type="math">195.0</c2>
		</material>
	</Material>
	<Mesh>
		<Nodes name="Object01">
			<node id="1">0.0,1.474514954580286e-15,0.0289899989998013</node>
			<node id="2">0.0,0.06957457063968628,0.007705784859658587</node>
			<node id="3">0.0,0.0,0.07</node>
			<node id="4">0.0,0.07350000000000001,0.0</node>
			<node id="5">0.0,-0.002,0.07</node>
			<node id="6">0.0,0.012606024340269192,0.03297834989896217</node>
			<node id="7">0.0,0.02579992232035516,0.033838494452709034</node>
			<node id="8">0.0,0.03897749495598165,0.03147123885952752</node>
			<node id="9">0.0,0.05068765576257653,0.0262868892029469</node>
			<node id="10">0.0,0.0612437156911302,0.01817647702755364</node>
			<node id="11">0.0,0.006182557698925766,0.031364896214931784</node>
			<node id="12">0.0,0.019176995611699894,0.03380689865008957</node>
			<node id="13">0.0,0.03257929819870001,0.03303653761040795</node>
			<node id="14">0.0,0.04513554492902368,0.02915426081830599</node>
			<node id="15">0.0,0.056462408246383725,0.022359382263002315</node>
			<node id="16">0.0,0.06568855344294515,0.01324679734263257</node>
			<node id="17">0.0,0.0674334472078414,0.01878111279097345</node>
			<node id="18">0.0,0.06356751093619864,0.02931162829622856</node>
			<node id="19">0.0,0.05784964054282277,0.03941343792497931</node>
			<node id="20">0.0,0.050744453835227216,0.04821825800425079</node>
<!-- ... 5044 like lines cut -->
		</Nodes>
		<Elements type="tri6" name="skin_part">
			<elem id="427">17,2,869,25,1051,1052</elem>
			<elem id="428">2,17,877,25,1053,1054</elem>
			<elem id="429">69,2,1027,71,1055,1056</elem>
			<elem id="430">2,70,1040,73,1057,1058</elem>
			<elem id="431">869,2,1040,1051,1058,1059</elem>
			<elem id="432">2,877,1027,1054,1060,1055</elem>
			<elem id="433">3,24,1037,33,1061,1062</elem>
			<elem id="434">24,3,1038,33,1063,1064</elem>
			<elem id="435">3,157,1038,198,1065,1063</elem>
			<elem id="436">197,3,1037,239,1062,1066</elem>
			<elem id="437">18,17,978,26,1067,1068</elem>
			<elem id="438">17,18,980,26,1069,1070</elem>
			<elem id="439">17,869,978,1052,1071,1067</elem>
			<elem id="440">877,17,980,1053,1070,1072</elem>
			<elem id="441">18,19,789,27,1073,1074</elem>
			<elem id="442">19,18,791,27,1075,1076</elem>
			<elem id="443">18,789,980,1074,1077,1069</elem>
			<elem id="444">791,18,978,1075,1068,1078</elem>
			<elem id="445">20,19,964,28,1079,1080</elem>
			<elem id="446">19,20,965,28,1081,1082</elem>
<!-- ... 649 like lines cut -->
		</Elements>
		<Elements type="tet10" name="glandular_part">
			<elem id="1442">392,2632,393,2638,2655,2656,664,2657,2659,2658</elem>
			<elem id="1443">392,2637,2632,2638,2660,2661,2655,2657,2662,2659</elem>
			<elem id="1444">448,406,453,2642,775,777,778,2663,2665,2664</elem>
			<elem id="1445">262,416,242,2646,2666,2667,276,2668,2670,2669</elem>
			<elem id="1446">393,392,400,2632,664,733,734,2656,2655,2671</elem>
			<elem id="1447">413,257,2635,2641,2672,2673,2674,2675,2677,2676</elem>
			<elem id="1448">406,2635,453,2642,2678,2679,777,2665,2680,2664</elem>
			<elem id="1449">2643,2649,437,2652,2681,2682,2683,2684,2686,2685</elem>
			<elem id="1450">364,2633,248,2645,2687,2688,2689,2690,2692,2691</elem>
			<elem id="1451">393,2632,442,2638,2656,2693,738,2658,2659,2694</elem>
			<elem id="1452">242,370,257,2635,2695,2696,279,2697,2698,2673</elem>
			<elem id="1453">411,243,248,2633,2699,303,2700,2701,2702,2688</elem>
			<elem id="1454">370,413,257,2635,506,2672,2696,2698,2674,2673</elem>
			<elem id="1455">442,2638,2632,2640,2694,2659,2693,2703,2705,2704</elem>
			<elem id="1456">426,446,402,2641,594,771,770,2706,2708,2707</elem>
			<elem id="1457">419,2633,364,2645,2709,2687,587,2710,2692,2690</elem>
			<elem id="1458">426,402,2632,2641,770,2711,2712,2706,2707,2713</elem>
			<elem id="1459">250,2632,256,2644,2714,2715,318,2716,2718,2717</elem>
			<elem id="1460">426,402,442,2632,770,710,742,2712,2711,2693</elem>
			<elem id="1461">370,242,416,2646,2695,2667,503,2719,2669,2670</elem>
<!-- ... 494 like lines cut -->
		</Elements>
		<Elements type="tet10" name="adipose_part">
			<elem id="1956">372,842,377,3079,3133,3134,636,3135,3137,3136</elem>
			<elem id="1957">70,809,362,808,1121,3138,551,1122,1123,3139</elem>
			<elem id="1958">913,3045,3070,3083,3140,3141,3142,3143,3145,3144</elem>
			<elem id="1959">988,429,373,3077,3146,634,3147,3148,3150,3149</elem>
			<elem id="1960">3051,3069,950,3104,3151,3152,3153,3154,3156,3155</elem>
			<elem id="1961">873,3059,3051,3078,3157,3158,3159,3160,3162,3161</elem>
			<elem id="1962">792,3088,2127,3091,3163,3164,3165,3166,3168,3167</elem>
			<elem id="1963">988,844,429,3077,1530,3169,3146,3148,3170,3150</elem>
			<elem id="1964">891,3063,3048,3082,3171,3172,3173,3174,3176,3175</elem>
			<elem id="1965">866,3085,3071,3096,3177,3178,3179,3180,3182,3181</elem>
			<elem id="1966">816,3094,399,3107,3183,3184,3185,3186,3188,3187</elem>
			<elem id="1967">891,852,935,3063,1576,1577,1579,3171,3190,3189</elem>
			<elem id="1968">429,843,988,373,3191,1531,3146,634,3192,3147</elem>
			<elem id="1969">891,935,3048,3063,1579,3193,3173,3171,3189,3172</elem>
			<elem id="1970">372,842,841,377,3133,1429,3194,636,3134,3195</elem>
			<elem id="1971">911,913,3045,3070,1816,3140,3196,3197,3142,3141</elem>
			<elem id="1972">900,930,3052,3091,1599,3198,3199,3200,3202,3201</elem>
			<elem id="1973">823,377,842,3079,3203,3134,1428,3204,3136,3137</elem>
			<elem id="1974">843,844,429,988,1526,3169,3191,1531,1530,3146</elem>
			<elem id="1975">799,1996,3047,3091,3205,3206,3207,3208,3210,3209</elem>
<!-- ... 2478 like lines cut -->
		</Elements>
		<Surface name="chest_part">
			<tri6 id="1">74,5,1987,115,2133,2134</tri6>
			<tri6 id="2">5,114,2122,156,2135,2136</tri6>
			<tri6 id="3">1987,5,2122,2133,2136,2137</tri6>
			<tri6 id="4">75,74,2107,116,2138,2139</tri6>
			<tri6 id="5">74,1987,2107,2134,2140,2138</tri6>
			<tri6 id="6">76,75,1993,117,2141,2142</tri6>
			<tri6 id="7">1993,75,2107,2141,2139,2143</tri6>
			<tri6 id="8">77,76,2131,118,2144,2145</tri6>
			<tri6 id="9">76,1993,2131,2142,2146,2144</tri6>
			<tri6 id="10">78,77,2112,119,2147,2148</tri6>
			<tri6 id="11">2112,77,2131,2147,2145,2149</tri6>
			<tri6 id="12">79,78,1983,120,2150,2151</tri6>
			<tri6 id="13">1983,78,2112,2150,2148,2152</tri6>
			<tri6 id="14">80,79,2121,121,2153,2154</tri6>
			<tri6 id="15">79,1983,2121,2151,2155,2153</tri6>
			<tri6 id="16">81,80,2119,122,2156,2157</tri6>
			<tri6 id="17">2119,80,2121,2156,2154,2158</tri6>
			<tri6 id="18">82,81,1994,123,2159,2160</tri6>
			<tri6 id="19">1994,81,2119,2159,2157,2161</tri6>
			<tri6 id="20">83,82,2104,124,2162,2163</tri6>
<!-- ... 326 like lines cut -->
		</Surface>
		<PartList name="Mass_damping">skin_part,glandular_part,adipose_part</PartList>
		<PartList name="gravitational_acceleration">skin_part,glandular_part,adipose_part</PartList>
	</Mesh>
	<MeshDomains>
		<ShellDomain name="skin_part" mat="skin">
			<shell_thickness>0.0001</shell_thickness>
		</ShellDomain>
		<SolidDomain name="glandular_part" mat="glandular" />
		<SolidDomain name="adipose_part" mat="adipose" />
	</MeshDomains>
	<MeshData>
		<NodeData name="density_map" node_set="Object01">
			<node lid="1">911.000000</node>
			<node lid="2">911.000000</node>
			<node lid="3">911.000000</node>
			<node lid="4">1041.000000</node>
			<node lid="5">911.000000</node>
			<node lid="6">911.000000</node>
			<node lid="7">911.000000</node>
			<node lid="8">911.000000</node>
			<node lid="9">911.000000</node>
			<node lid="10">911.000000</node>
			<node lid="11">911.000000</node>
			<node lid="12">911.000000</node>
			<node lid="13">911.000000</node>
			<node lid="14">911.000000</node>
			<node lid="15">911.000000</node>
			<node lid="16">911.000000</node>
			<node lid="17">911.000000</node>
			<node lid="18">911.000000</node>
			<node lid="19">911.000000</node>
			<node lid="20">911.000000</node>
<!-- ... 5044 like lines cut -->
		</NodeData>
	</MeshData>
	<Loads>
		<body_load type="body force" elem_set="@part_list:gravitational_acceleration">
			<force lc="1">0,0,9.81</force>
		</body_load>
	</Loads>
	<Step>
		<step id="1" name="Step1">
			<Control>
				<analysis>STATIC</analysis>
				<time_steps>10.0</time_steps>
				<step_size>0.1</step_size>
				<plot_zero_state>0</plot_zero_state>
				<plot_range>0,-1</plot_range>
				<plot_level>PLOT_NEVER</plot_level>
				<output_level>OUTPUT_NEVER</output_level>
				<plot_stride>1</plot_stride>
				<output_stride>1</output_stride>
				<adaptor_re_solve>1</adaptor_re_solve>
				<time_stepper type="default">
					<max_retries>40.0</max_retries>
					<opt_iter>11.0</opt_iter>
					<dtmin>0.0</dtmin>
					<dtmax>0.1</dtmax>
					<aggressiveness>0.0</aggressiveness>
					<cutback>0.5</cutback>
					<dtforce>0.0</dtforce>
				</time_stepper>
				<solver type="solid">
					<symmetric_stiffness>symmetric</symmetric_stiffness>
					<equation_scheme>staggered</equation_scheme>
					<equation_order>default</equation_order>
					<optimize_bw>0.0</optimize_bw>
					<lstol>0.9</lstol>
					<lsmin>0.01</lsmin>
					<lsiter>5.0</lsiter>
					<ls_check_jacobians>0.0</ls_check_jacobians>
					<max_refs>15.0</max_refs>
					<check_zero_diagonal>0.0</check_zero_diagonal>
					<zero_diagonal_tol>0.0</zero_diagonal_tol>
					<force_partition>0.0</force_partition>
					<reform_each_time_step>1.0</reform_each_time_step>
					<reform_augment>0.0</reform_augment>
					<diverge_reform>1.0</diverge_reform>
					<min_residual>1e-20</min_residual>
					<max_residual>0.0</max_residual>
					<dtol>0.001</dtol>
					<etol>0.01</etol>
					<rtol>0.0</rtol>
					<rhoi>-2.0</rhoi>
					<alpha>1.0</alpha>
					<beta>0.25</beta>
					<gamma>0.25</gamma>
					<logSolve>0.0</logSolve>
					<arc_length>0.0</arc_length>
					<arc_length_scale>0.0</arc_length_scale>
					<qn_method type="BFGS">
						<max_ups>10.0</max_ups>
						<max_buffer_size>0.0</max_buffer_size>
						<cycle_buffer>1.0</cycle_buffer>
						<cmax>100000.0</cmax>
					</qn_method>
				</solver>
			</Control>
			<Boundary>
				<bc name="chest" type="zero displacement" node_set="@surface:chest_part">
					<x_dof>1</x_dof>
					<y_dof>1</y_dof>
					<z_dof>1</z_dof>
				</bc>
			</Boundary>
		</step>
		<step id="2" name="Step2">
			<Control>
				<analysis>DYNAMIC</analysis>
				<time_steps>120.0</time_steps>
				<step_size>0.01</step_size>
				<plot_zero_state>0</plot_zero_state>
				<plot_range>0,-1</plot_range>
				<plot_level>PLOT_MUST_POINTS</plot_level>
				<output_level>OUTPUT_MUST_POINTS</output_level>
				<plot_stride>1</plot_stride>
				<output_stride>1</output_stride>
				<adaptor_re_solve>1</adaptor_re_solve>
				<time_stepper type="default">
					<max_retries>20.0</max_retries>
					<opt_iter>11.0</opt_iter>
					<dtmin>0.0</dtmin>
					<dtmax lc="3">0.01</dtmax>
					<aggressiveness>0.0</aggressiveness>
					<cutback>0.5</cutback>
					<dtforce>0.0</dtforce>
				</time_stepper>
				<solver type="solid">
					<symmetric_stiffness>symmetric</symmetric_stiffness>
					<equation_scheme>staggered</equation_scheme>
					<equation_order>default</equation_order>
					<optimize_bw>0.0</optimize_bw>
					<lstol>0.9</lstol>
					<lsmin>0.01</lsmin>
					<lsiter>5.0</lsiter>
					<ls_check_jacobians>0.0</ls_check_jacobians>
					<max_refs>15.0</max_refs>
					<check_zero_diagonal>0.0</check_zero_diagonal>
					<zero_diagonal_tol>0.0</zero_diagonal_tol>
					<force_partition>0.0</force_partition>
					<reform_each_time_step>1.0</reform_each_time_step>
					<reform_augment>0.0</reform_augment>
					<diverge_reform>1.0</diverge_reform>
					<min_residual>1e-20</min_residual>
					<max_residual>0.0</max_residual>
					<dtol>0.001</dtol>
					<etol>0.01</etol>
					<rtol>0.0</rtol>
					<rhoi>-2.0</rhoi>
					<alpha>1.0</alpha>
					<beta>1.0</beta>
					<gamma>1.5</gamma>
					<logSolve>0.0</logSolve>
					<arc_length>0.0</arc_length>
					<arc_length_scale>0.0</arc_length_scale>
					<qn_method type="BFGS">
						<max_ups>10.0</max_ups>
						<max_buffer_size>0.0</max_buffer_size>
						<cycle_buffer>1.0</cycle_buffer>
						<cmax>100000.0</cmax>
					</qn_method>
				</solver>
			</Control>
			<Boundary>
				<bc name="parabolic_trajectory" type="prescribed displacement" node_set="@surface:chest_part">
					<dof>z</dof>
					<value lc="2">1</value>
					<relative>0</relative>
				</bc>
				<bc name="only_z_displacement" type="zero displacement" node_set="@surface:chest_part">
					<x_dof>1</x_dof>
					<y_dof>1</y_dof>
					<z_dof>0</z_dof>
				</bc>
			</Boundary>
			<Loads>
				<body_load type="mass damping" elem_set="@part_list:Mass_damping">
					<C>20</C>
				</body_load>
			</Loads>
		</step>
	</Step>
	<LoadData>
		<load_controller id="1" name="LC1" type="loadcurve">
			<interpolate>LINEAR</interpolate>
			<extend>CONSTANT</extend>
			<points>
				<pt>0.0,0.0</pt>
				<pt>0.1111111111111111,0.1111111111111111</pt>
				<pt>0.2222222222222222,0.2222222222222222</pt>
				<pt>0.3333333333333333,0.3333333333333333</pt>
				<pt>0.4444444444444444,0.4444444444444444</pt>
				<pt>0.5555555555555556,0.5555555555555556</pt>
				<pt>0.6666666666666666,0.6666666666666666</pt>
				<pt>0.7777777777777777,0.7777777777777777</pt>
				<pt>0.8888888888888888,0.8888888888888888</pt>
				<pt>1.0,1.0</pt>
			</points>
		</load_controller>
		<load_controller id="2" name="LC2" type="loadcurve">
			<interpolate>LINEAR</interpolate>
			<extend>CONSTANT</extend>
			<points>
				<pt>1.0,0.0</pt>
				<pt>1.0018060945639429,0.0007839999999999784</pt>
				<pt>1.0036121891278857,0.0015359999999999586</pt>
				<pt>1.0054182836918288,0.002256000000000027</pt>
				<pt>1.0072243782557717,0.002944000000000007</pt>
				<pt>1.0090304728197146,0.003599999999999988</pt>
				<pt>1.0108365673836575,0.004223999999999972</pt>
				<pt>1.0126426619476006,0.004816000000000028</pt>
				<pt>1.0144487565115434,0.005376000000000012</pt>
				<pt>1.0162548510754863,0.005903999999999996</pt>
				<pt>1.0180609456394292,0.006399999999999982</pt>
				<pt>1.019867040203372,0.006863999999999971</pt>
				<pt>1.0216731347673151,0.007296000000000013</pt>
				<pt>1.023479229331258,0.007696</pt>
				<pt>1.0252853238952009,0.008063999999999991</pt>
				<pt>1.0270914184591438,0.008399999999999982</pt>
				<pt>1.0288975130230869,0.008704000000000014</pt>
				<pt>1.0307036075870297,0.008976000000000003</pt>
				<pt>1.0325097021509726,0.009215999999999995</pt>
				<pt>1.0343157967149155,0.009423999999999991</pt>
<!-- ... 31 like lines cut -->
			</points>
		</load_controller>
		<load_controller id="3" name="LC3" type="loadcurve">
			<interpolate>LINEAR</interpolate>
			<extend>CONSTANT</extend>
			<points>
				<pt>1.0,0.01</pt>
				<pt>1.025,0.01</pt>
				<pt>1.0499999999999998,0.01</pt>
				<pt>1.0749999999999997,0.01</pt>
				<pt>1.0999999999999996,0.01</pt>
				<pt>1.1249999999999996,0.01</pt>
				<pt>1.1499999999999995,0.01</pt>
				<pt>1.1749999999999994,0.01</pt>
				<pt>1.1999999999999993,0.01</pt>
				<pt>1.2249999999999992,0.01</pt>
				<pt>1.2499999999999991,0.01</pt>
				<pt>1.274999999999999,0.01</pt>
				<pt>1.299999999999999,0.01</pt>
				<pt>1.3249999999999988,0.01</pt>
				<pt>1.3499999999999988,0.01</pt>
				<pt>1.3749999999999987,0.01</pt>
				<pt>1.3999999999999986,0.01</pt>
				<pt>1.4249999999999985,0.01</pt>
				<pt>1.4499999999999984,0.01</pt>
				<pt>1.4749999999999983,0.01</pt>
<!-- ... 29 like lines cut -->
			</points>
		</load_controller>
	</LoadData>
	<Output>
		<plotfile type="vtk" file="C:\Users\20223231\OneDrive - TU Eindhoven\Documents\Word documenten\Master Jaar 1\Q4 - Stage\Github EWS-Pipeline-FEM\output\density_100.vtk">
			<var type="displacement" />
		</plotfile>
	</Output>
</febio_spec>