<?xml version='1.0' encoding='ISO-8859-1'?>
<febio_spec version="4.0">
	<Module type="solid" />
	<Globals>
		<Constants>
			<T>0</T>
			<P>0</P>
			<R>8.31446</R>
			<Fc>96485.3</Fc>
		</Constants>
	</Globals>
	<Material>
		<material id="1" name="skin" type="Mooney-Rivlin">
			<k>480000.0</k>
			<pressure_model>default</pressure_model>
			<density type="math">1100.0</density>
			<c1 type="math">1200.0</c1>
			<c2 type="math">1200.0</c2>
		</material>
		<material id="2" name="adipose" type="Mooney-Rivlin">
			<k>425000.0</k>
			<pressure_model>default</pressure_model>
			<density type="math">911.0</density>
			<c1 type="math">109.0</c1>
			<c2 type="math">106.0</c2>
		</material>
		<material id="3" name="glandular" type="Mooney-Rivlin">
			<k>425000.0</k>
			<pressure_model>default</pressure_model>
			<density type="math">1041.0</density>
			<c1 type="math">230.0</c1>
			<c2 type="math">195.0</c2>
		</material>
	</Material>
	<Mesh>
		<Nodes name="Object01">
			<node id="1">0.0,1.474514954580286e-15,0.0289899989998013</node>
			<node id="2">0.0,0.06957457063968628,0.007705784859658587</node>
			<node id="3">0.0,0.0,0.07</node>
			<node id="4">0.0,0.07350000000000001,0.0</node>
			<node id="5">0.0,-0.002,0.07</node>
			<node id="6">0.0,0.007450925286663591,0.031749415285060284</node>
			<node id="7">0.0,0.015222029841528019,0.03340489100525022</node>
			<node id="8">0.0,0.0231506798703216,0.03392178033932913</node>
			<node id="9">0.0,0.031070944464697294,0.03328926581945481</node>
			<node id="10">0.0,0.038817068206807054,0.0315205847191157</node>
			<node id="11">0.0,0.04622694010120655,0.02865275202327017</node>
			<node id="12">0.0,0.05314548623623277,0.024745785778178365</node>
			<node id="13">0.0,0.059427915173184645,0.01988145103281772</node>
			<node id="14">0.0,0.06494274814375377,0.01416154865869482</node>
			<node id="15">0.0,0.0036754982714077046,0.030504620023896204</node>
			<node id="16">0.0,0.011306502092457786,0.03271786346868309</node>
			<node id="17">0.0,0.019176995611699894,0.03380689865008957</node>
			<node id="18">0.0,0.027122265021103067,0.03374893422328183</node>
			<node id="19">0.0,0.03497603160167019,0.03254518326866537</node>
			<node id="20">0.0,0.04257393160699721,0.03022083790451986</node>
<!-- ... 16327 like lines cut -->
		</Nodes>
		<Elements type="tri6" name="skin_part">
			<elem id="948">25,2,2307,38,2478,2479</elem>
			<elem id="949">2,25,2309,38,2480,2481</elem>
			<elem id="950">105,2,2309,110,2481,2482</elem>
			<elem id="951">2,109,2307,115,2483,2478</elem>
			<elem id="952">3,37,2435,51,2484,2485</elem>
			<elem id="953">37,3,2449,51,2486,2487</elem>
			<elem id="954">3,243,2449,306,2488,2486</elem>
			<elem id="955">305,3,2435,369,2485,2489</elem>
			<elem id="956">25,26,1847,39,2490,2491</elem>
			<elem id="957">26,25,1848,39,2492,2493</elem>
			<elem id="958">25,1847,2309,2491,2494,2480</elem>
			<elem id="959">1848,25,2307,2492,2479,2495</elem>
			<elem id="960">26,27,2308,40,2496,2497</elem>
			<elem id="961">27,26,2393,40,2498,2499</elem>
			<elem id="962">1847,26,2308,2490,2497,2500</elem>
			<elem id="963">26,1848,2393,2493,2501,2498</elem>
			<elem id="964">28,27,1810,41,2502,2503</elem>
			<elem id="965">27,28,1811,41,2504,2505</elem>
			<elem id="966">1810,27,2393,2502,2499,2506</elem>
			<elem id="967">27,1811,2308,2505,2507,2496</elem>
<!-- ... 1562 like lines cut -->
		</Elements>
		<Elements type="tet10" name="glandular_part">
			<elem id="3310">706,705,6259,6296,1447,6434,6435,6436,6438,6437</elem>
			<elem id="3311">393,388,6320,6338,592,6439,6440,6441,6443,6442</elem>
			<elem id="3312">6275,6319,6292,6337,6444,6445,6446,6447,6449,6448</elem>
			<elem id="3313">6234,6292,6275,6319,6450,6446,6451,6452,6445,6444</elem>
			<elem id="3314">6285,6350,762,6370,6453,6454,6455,6456,6458,6457</elem>
			<elem id="3315">706,6296,6259,6378,6436,6437,6435,6459,6461,6460</elem>
			<elem id="3316">808,6346,6347,6407,6462,6463,6464,6465,6467,6466</elem>
			<elem id="3317">6274,6306,873,6331,6468,6469,6470,6471,6473,6472</elem>
			<elem id="3318">6258,6274,6242,6361,6474,6475,6476,6477,6479,6478</elem>
			<elem id="3319">787,894,6304,6345,1769,6480,6481,6482,6484,6483</elem>
			<elem id="3320">6238,6257,6316,6372,6485,6486,6487,6488,6490,6489</elem>
			<elem id="3321">404,420,6252,6320,519,6491,6492,6493,6495,6494</elem>
			<elem id="3322">838,6298,6323,6333,6496,6497,6498,6499,6501,6500</elem>
			<elem id="3323">420,404,6252,6364,519,6492,6491,6502,6504,6503</elem>
			<elem id="3324">6243,6287,6293,6294,6505,6506,6507,6508,6510,6509</elem>
			<elem id="3325">6244,6300,6278,6358,6511,6512,6513,6514,6516,6515</elem>
			<elem id="3326">393,6320,6311,6338,6440,6517,6518,6441,6442,6519</elem>
			<elem id="3327">838,6323,825,6333,6498,6520,1225,6499,6500,6521</elem>
			<elem id="3328">725,6260,6302,6415,6522,6523,6524,6525,6527,6526</elem>
			<elem id="3329">6300,6305,6278,6358,6528,6529,6512,6516,6530,6515</elem>
<!-- ... 2270 like lines cut -->
		</Elements>
		<Elements type="tet10" name="adipose_part">
			<elem id="5600">2020,8635,8742,8898,9114,9115,9116,9117,9119,9118</elem>
			<elem id="5601">8638,8747,2434,8969,9120,9121,9122,9123,9125,9124</elem>
			<elem id="5602">860,8697,8692,8859,9126,9127,9128,9129,9131,9130</elem>
			<elem id="5603">4912,8772,8585,8820,9132,9133,9134,9135,9137,9136</elem>
			<elem id="5604">2010,8695,8634,8764,9138,9139,9140,9141,9143,9142</elem>
			<elem id="5605">8590,8631,8553,8944,9144,9145,9146,9147,9149,9148</elem>
			<elem id="5606">8642,8747,8686,8791,9150,9151,9152,9153,9155,9154</elem>
			<elem id="5607">2027,2025,8635,8742,3918,9156,9157,9158,9159,9115</elem>
			<elem id="5608">8560,8578,8666,8689,9160,9161,9162,9163,9165,9164</elem>
			<elem id="5609">8659,8759,2138,8967,9166,9167,9168,9169,9171,9170</elem>
			<elem id="5610">2091,8584,2394,8751,9172,9173,4232,9174,9176,9175</elem>
			<elem id="5611">2010,8764,8634,8867,9141,9142,9140,9177,9179,9178</elem>
			<elem id="5612">2061,8695,8672,8919,9180,9181,9182,9183,9185,9184</elem>
			<elem id="5613">8692,8697,8570,8859,9127,9186,9187,9130,9131,9188</elem>
			<elem id="5614">4921,8749,8661,8971,9189,9190,9191,9192,9194,9193</elem>
			<elem id="5615">8553,8631,8590,8787,9145,9144,9146,9195,9197,9196</elem>
			<elem id="5616">1986,8815,8660,8932,9198,9199,9200,9201,9203,9202</elem>
			<elem id="5617">1984,8883,8667,8917,9204,9205,9206,9207,9209,9208</elem>
			<elem id="5618">1984,2234,8883,8917,3532,9210,9204,9207,9211,9209</elem>
			<elem id="5619">8554,8648,8585,8805,9212,9213,9214,9215,9217,9216</elem>
<!-- ... 8202 like lines cut -->
		</Elements>
		<Surface name="chest_part">
			<tri6 id="1">116,5,4748,179,5096,5097</tri6>
			<tri6 id="2">5,178,5047,242,5098,5099</tri6>
			<tri6 id="3">4748,5,5047,5096,5099,5100</tri6>
			<tri6 id="4">117,116,5044,180,5101,5102</tri6>
			<tri6 id="5">116,4748,5044,5097,5103,5101</tri6>
			<tri6 id="6">118,117,4760,181,5104,5105</tri6>
			<tri6 id="7">4760,117,5044,5104,5102,5106</tri6>
			<tri6 id="8">119,118,5067,182,5107,5108</tri6>
			<tri6 id="9">118,4760,5067,5105,5109,5107</tri6>
			<tri6 id="10">120,119,4743,183,5110,5111</tri6>
			<tri6 id="11">4743,119,5067,5110,5108,5112</tri6>
			<tri6 id="12">121,120,5060,184,5113,5114</tri6>
			<tri6 id="13">120,4743,5060,5111,5115,5113</tri6>
			<tri6 id="14">122,121,4765,185,5116,5117</tri6>
			<tri6 id="15">4765,121,5060,5116,5114,5118</tri6>
			<tri6 id="16">123,122,5055,186,5119,5120</tri6>
			<tri6 id="17">122,4765,5055,5117,5121,5119</tri6>
			<tri6 id="18">124,123,4752,187,5122,5123</tri6>
			<tri6 id="19">4752,123,5055,5122,5120,5124</tri6>
			<tri6 id="20">125,124,5073,188,5125,5126</tri6>
<!-- ... 760 like lines cut -->
		</Surface>
		<PartList name="Mass_damping">skin_part,glandular_part,adipose_part</PartList>
		<PartList name="gravitational_acceleration">skin_part,glandular_part,adipose_part</PartList>
	</Mesh>
	<MeshDomains>
		<ShellDomain name="skin_part" mat="skin">
			<shell_thickness>0.0001</shell_thickness>
		</ShellDomain>
		<SolidDomain name="glandular_part" mat="glandular" />
		<SolidDomain name="adipose_part" mat="adipose" />
	</MeshDomains>
	<MeshData>
		<NodeData name="density_map" node_set="Object01">
			<node lid="1">911.000000</node>
			<node lid="2">911.000000</node>
			<node lid="3">911.000000</node>
			<node lid="4">1041.000000</node>
			<node lid="5">911.000000</node>
			<node lid="6">911.000000</node>
			<node lid="7">911.000000</node>
			<node lid="8">911.000000</node>
			<node lid="9">911.000000</node>
			<node lid="10">911.000000</node>
			<node lid="11">911.000000</node>
			<node lid="12">911.000000</node>
			<node lid="13">911.000000</node>
			<node lid="14">911.000000</node>
			<node lid="15">911.000000</node>
			<node lid="16">911.000000</node>
			<node lid="17">911.000000</node>
			<node lid="18">911.000000</node>
			<node lid="19">911.000000</node>
			<node lid="20">911.000000</node>
<!-- ... 16327 like lines cut -->
		</NodeData>
	</MeshData>
	<Loads>
		<body_load type="body force" elem_set="@part_list:gravitational_acceleration">
			<force lc="1">0,0,9.81</force>
		</body_load>
	</Loads>
	<Step>
		<step id="1" name="Step1">
			<Control>
				<analysis>STATIC</analysis>
				<time_steps>10.0</time_steps>
				<step_size>0.1</step_size>
				<plot_zero_state>0</plot_zero_state>
				<plot_range>0,-1</plot_range>
				<plot_level>PLOT_NEVER</plot_level>
				<output_level>OUTPUT_NEVER</output_level>
				<plot_stride>1</plot_stride>
				<output_stride>1</output_stride>
				<adaptor_re_solve>1</adaptor_re_solve>
				<time_stepper type="default">
					<max_retries>40.0</max_retries>
					<opt_iter>11.0</opt_iter>
					<dtmin>0.0</dtmin>
					<dtmax>0.1</dtmax>
					<aggressiveness>0.0</aggressiveness>
					<cutback>0.5</cutback>
					<dtforce>0.0</dtforce>
				</time_stepper>
				<solver type="solid">
					<symmetric_stiffness>symmetric</symmetric_stiffness>
					<equation_scheme>staggered</equation_scheme>
					<equation_order>default</equation_order>
					<optimize_bw>0.0</optimize_bw>
					<lstol>0.9</lstol>
					<lsmin>0.01</lsmin>
					<lsiter>5.0</lsiter>
					<ls_check_jacobians>0.0</ls_check_jacobians>
					<max_refs>15.0</max_refs>
					<check_zero_diagonal>0.0</check_zero_diagonal>
					<zero_diagonal_tol>0.0</zero_diagonal_tol>
					<force_partition>0.0</force_partition>
					<reform_each_time_step>1.0</reform_each_time_step>
					<reform_augment>0.0</reform_augment>
					<diverge_reform>1.0</diverge_reform>
					<min_residual>1e-20</min_residual>
					<max_residual>0.0</max_residual>
					<dtol>0.001</dtol>
					<etol>0.01</etol>
					<rtol>0.0</rtol>
					<rhoi>-2.0</rhoi>
					<alpha>1.0</alpha>
					<beta>0.25</beta>
					<gamma>0.25</gamma>
					<logSolve>0.0</logSolve>
					<arc_length>0.0</arc_length>
					<arc_length_scale>0.0</arc_length_scale>
					<qn_method type="BFGS">
						<max_ups>10.0</max_ups>
						<max_buffer_size>0.0</max_buffer_size>
						<cycle_buffer>1.0</cycle_buffer>
						<cmax>100000.0</cmax>
					</qn_method>
				</solver>
			</Control>
			<Boundary>
				<bc name="chest" type="zero displacement" node_set="@surface:chest_part">
					<x_dof>1</x_dof>
					<y_dof>1</y_dof>
					<z_dof>1</z_dof>
				</bc>
			</Boundary>
		</step>
		<step id="2" name="Step2">
			<Control>
				<analysis>DYNAMIC</analysis>
				<time_steps>120.0</time_steps>
				<step_size>0.01</step_size>
				<plot_zero_state>0</plot_zero_state>
				<plot_range>0,-1</plot_range>
				<plot_level>PLOT_MUST_POINTS</plot_level>
				<output_level>OUTPUT_MUST_POINTS</output_level>
				<plot_stride>1</plot_stride>
				<output_stride>1</output_stride>
				<adaptor_re_solve>1</adaptor_re_solve>
				<time_stepper type="default">
					<max_retries>20.0</max_retries>
					<opt_iter>11.0</opt_iter>
					<dtmin>0.0</dtmin>
					<dtmax lc="3">0.01</dtmax>
					<aggressiveness>0.0</aggressiveness>
					<cutback>0.5</cutback>
					<dtforce>0.0</dtforce>
				</time_stepper>
				<solver type="solid">
					<symmetric_stiffness>symmetric</symmetric_stiffness>
					<equation_scheme>staggered</equation_scheme>
					<equation_order>default</equation_order>
					<optimize_bw>0.0</optimize_bw>
					<lstol>0.9</lstol>
					<lsmin>0.01</lsmin>
					<lsiter>5.0</lsiter>
					<ls_check_jacobians>0.0</ls_check_jacobians>
					<max_refs>15.0</max_refs>
					<check_zero_diagonal>0.0</check_zero_diagonal>
					<zero_diagonal_tol>0.0</zero_diagonal_tol>
					<force_partition>0.0</force_partition>
					<reform_each_time_step>1.0</reform_each_time_step>
					<reform_augment>0.0</reform_augment>
					<diverge_reform>1.0</diverge_reform>
					<min_residual>1e-20</min_residual>
					<max_residual>0.0</max_residual>
					<dtol>0.001</dtol>
					<etol>0.01</etol>
					<rtol>0.0</rtol>
					<rhoi>-2.0</rhoi>
					<alpha>1.0</alpha>
					<beta>1.0</beta>
					<gamma>1.5</gamma>
					<logSolve>0.0</logSolve>
					<arc_length>0.0</arc_length>
					<arc_length_scale>0.0</arc_length_scale>
					<qn_method type="BFGS">
						<max_ups>10.0</max_ups>
						<max_buffer_size>0.0</max_buffer_size>
						<cycle_buffer>1.0</cycle_buffer>
						<cmax>100000.0</cmax>
					</qn_method>
				</solver>
			</Control>
			<Boundary>
				<bc name="parabolic_trajectory" type="prescribed displacement" node_set="@surface:chest_part">
					<dof>z</dof>
					<value lc="2">1</value>
					<relative>0</relative>
				</bc>
				<bc name="only_z_displacement" type="zero displacement" node_set="@surface:chest_part">
					<x_dof>1</x_dof>
					<y_dof>1</y_dof>
					<z_dof>0</z_dof>
				</bc>
			</Boundary>
			<Loads>
				<body_load type="mass damping" elem_set="@part_list:Mass_damping">
					<C>20</C>
				</body_load>
			</Loads>
		</step>
	</Step>
	<LoadData>
		<load_controller id="1" name="LC1" type="loadcurve">
			<interpolate>LINEAR</interpolate>
			<extend>CONSTANT</extend>
			<points>
				<pt>0.0,0.0</pt>
				<pt>0.1111111111111111,0.1111111111111111</pt>
				<pt>0.2222222222222222,0.2222222222222222</pt>
				<pt>0.3333333333333333,0.3333333333333333</pt>
				<pt>0.4444444444444444,0.4444444444444444</pt>
				<pt>0.5555555555555556,0.5555555555555556</pt>
				<pt>0.6666666666666666,0.6666666666666666</pt>
				<pt>0.7777777777777777,0.7777777777777777</pt>
				<pt>0.8888888888888888,0.8888888888888888</pt>
				<pt>1.0,1.0</pt>
			</points>
		</load_controller>
		<load_controller id="2" name="LC2" type="loadcurve">
			<interpolate>LINEAR</interpolate>
			<extend>CONSTANT</extend>
			<points>
				<pt>1.0,0.0</pt>
				<pt>1.0018060945639429,0.0007839999999999784</pt>
				<pt>1.0036121891278857,0.0015359999999999586</pt>
				<pt>1.0054182836918288,0.002256000000000027</pt>
				<pt>1.0072243782557717,0.002944000000000007</pt>
				<pt>1.0090304728197146,0.003599999999999988</pt>
				<pt>1.0108365673836575,0.004223999999999972</pt>
				<pt>1.0126426619476006,0.004816000000000028</pt>
				<pt>1.0144487565115434,0.005376000000000012</pt>
				<pt>1.0162548510754863,0.005903999999999996</pt>
				<pt>1.0180609456394292,0.006399999999999982</pt>
				<pt>1.019867040203372,0.006863999999999971</pt>
				<pt>1.0216731347673151,0.007296000000000013</pt>
				<pt>1.023479229331258,0.007696</pt>
				<pt>1.0252853238952009,0.008063999999999991</pt>
				<pt>1.0270914184591438,0.008399999999999982</pt>
				<pt>1.0288975130230869,0.008704000000000014</pt>
				<pt>1.0307036075870297,0.008976000000000003</pt>
				<pt>1.0325097021509726,0.009215999999999995</pt>
				<pt>1.0343157967149155,0.009423999999999991</pt>
<!-- ... 31 like lines cut -->
			</points>
		</load_controller>
		<load_controller id="3" name="LC3" type="loadcurve">
			<interpolate>LINEAR</interpolate>
			<extend>CONSTANT</extend>
			<points>
				<pt>1.0,0.01</pt>
				<pt>1.025,0.01</pt>
				<pt>1.0499999999999998,0.01</pt>
				<pt>1.0749999999999997,0.01</pt>
				<pt>1.0999999999999996,0.01</pt>
				<pt>1.1249999999999996,0.01</pt>
				<pt>1.1499999999999995,0.01</pt>
				<pt>1.1749999999999994,0.01</pt>
				<pt>1.1999999999999993,0.01</pt>
				<pt>1.2249999999999992,0.01</pt>
				<pt>1.2499999999999991,0.01</pt>
				<pt>1.274999999999999,0.01</pt>
				<pt>1.299999999999999,0.01</pt>
				<pt>1.3249999999999988,0.01</pt>
				<pt>1.3499999999999988,0.01</pt>
				<pt>1.3749999999999987,0.01</pt>
				<pt>1.3999999999999986,0.01</pt>
				<pt>1.4249999999999985,0.01</pt>
				<pt>1.4499999999999984,0.01</pt>
				<pt>1.4749999999999983,0.01</pt>
<!-- ... 29 like lines cut -->
			</points>
		</load_controller>
	</LoadData>
	<Output>
		<plotfile type="vtk" file="C:\Users\20223231\OneDrive - TU Eindhoven\Documents\Word documenten\Master Jaar 1\Q4 - Stage\Github EWS-Pipeline-FEM\output\density_150.vtk">
			<var type="displacement" />
		</plotfile>
	</Output>
</febio_spec>